data/public_benchmarks/arpae_go/extracted/Challenge_1_Original_Dataset_2_Scenarios/Original_Dataset_Real-Time_Edition_2/Network_07R-020/scenario_13/case.raw
0,   100.00, 33, 0, 1, 60.00     / PSS(R)E-33.7    WED, SEP 12 2018   2:33
 GO Competition Network Model 07
 GO Competition Network Model 07
     1,'A1          ', 345.0000,1,   1,   1,   1,1.00393, -19.1308,1.05000,0.95000,1.10000,0.90000
     2,'A2          ', 345.0000,1,   1,   1,   1,1.00395, -19.1393,1.05000,0.95000,1.10000,0.90000
     3,'A3          ', 345.0000,1,   1,   1,   1,1.00192, -18.2920,1.05000,0.95000,1.10000,0.90000
     4,'A4          ', 345.0000,1,   1,   1,   1,1.00193, -18.2924,1.05000,0.95000,1.10000,0.90000
     5,'A5          ', 345.0000,1,   1,   1,   1,1.00125, -19.0968,1.05000,0.95000,1.10000,0.90000
     6,'A6          ', 345.0000,1,   1,   1,   1,1.00127, -19.1074,1.05000,0.95000,1.10000,0.90000
     7,'A7          ', 345.0000,1,   1,   1,   1,0.99975, -18.1568,1.05000,0.95000,1.10000,0.90000
     8,'A8          ', 345.0000,1,   1,   1,   1,0.99977, -18.1574,1.05000,0.95000,1.10000,0.90000
     9,'A9          ', 345.0000,2,   1,   1,   1,1.00363, -17.4124,1.05000,0.95000,1.10000,0.90000
    10,'A10         ', 345.0000,2,   1,   1,   1,1.00358, -17.3824,1.05000,0.95000,1.10000,0.90000
    11,'A11         ', 138.0000,2,   1,   1,   1,1.00408, -19.3156,1.05000,0.95000,1.10000,0.90000
    12,'A12         ', 138.0000,2,   1,   1,   1,1.00033, -19.2062,1.05000,0.95000,1.10000,0.90000
    13,'A13         ', 138.0000,1,   1,   1,   1,1.00472, -18.1556,1.05000,0.95000,1.10000,0.90000
    14,'A14         ', 138.0000,1,   1,   1,   1,1.00079, -19.1862,1.05000,0.95000,1.10000,0.90000
    15,'A15         ', 138.0000,1,   1,   1,   1,1.00371, -17.8683,1.05000,0.95000,1.10000,0.90000
    16,'A16         ', 138.0000,1,   1,   1,   1,1.00371, -17.8680,1.05000,0.95000,1.10000,0.90000
    17,'A17         ', 138.0000,1,   1,   1,   1,1.00644, -18.1954,1.05000,0.95000,1.10000,0.90000
    18,'A18         ', 138.0000,1,   1,   1,   1,1.00589, -17.0314,1.05000,0.95000,1.10000,0.90000
    19,'A19         ', 138.0000,1,   1,   1,   1,1.00584, -17.0122,1.05000,0.95000,1.10000,0.90000
    20,'A20         ', 138.0000,2,   1,   1,   1,1.00724, -18.1409,1.05000,0.95000,1.10000,0.90000
    21,'A21         ', 138.0000,1,   1,   1,   1,0.98379, -19.9518,1.05000,0.95000,1.10000,0.90000
    22,'A22         ', 138.0000,1,   1,   1,   1,0.98390, -19.9481,1.05000,0.95000,1.10000,0.90000
    23,'A23         ', 138.0000,1,   1,   1,   1,1.00198, -21.0735,1.05000,0.95000,1.10000,0.90000
    24,'A24         ', 138.0000,2,   1,   1,   1,1.00540, -18.9986,1.05000,0.95000,1.10000,0.90000
    25,'A25         ', 138.0000,2,   1,   1,   1,1.00223, -19.1040,1.05000,0.95000,1.10000,0.90000
    26,'A26         ', 138.0000,2,   1,   1,   1,1.00230, -19.1080,1.05000,0.95000,1.10000,0.90000
    27,'A27         ', 138.0000,1,   1,   1,   1,1.00482, -17.9895,1.05000,0.95000,1.10000,0.90000
    28,'A28         ', 138.0000,1,   1,   1,   1,1.00506, -17.9767,1.05000,0.95000,1.10000,0.90000
    29,'A29         ', 138.0000,1,   1,   1,   1,1.00550, -17.7744,1.05000,0.95000,1.10000,0.90000
    30,'A30         ', 138.0000,1,   1,   1,   1,1.00552, -17.7732,1.05000,0.95000,1.10000,0.90000
    31,'A31         ', 138.0000,1,   1,   1,   1,0.98371, -22.2772,1.05000,0.95000,1.10000,0.90000
    32,'A32         ', 138.0000,2,   1,   1,   1,0.98368, -22.3085,1.05000,0.95000,1.10000,0.90000
    33,'A33         ', 138.0000,1,   1,   1,   1,1.00581, -16.3496,1.05000,0.95000,1.10000,0.90000
    34,'A34         ', 138.0000,1,   1,   1,   1,1.00604, -16.3386,1.05000,0.95000,1.10000,0.90000
    35,'A35         ', 138.0000,1,   1,   1,   1,1.00284, -18.7117,1.05000,0.95000,1.10000,0.90000
    36,'A36         ', 138.0000,1,   1,   1,   1,1.00346, -18.6643,1.05000,0.95000,1.10000,0.90000
    37,'A37         ', 138.0000,1,   1,   1,   1,1.00284, -18.7111,1.05000,0.95000,1.10000,0.90000
    38,'A38         ', 138.0000,1,   1,   1,   1,1.00346, -18.6643,1.05000,0.95000,1.10000,0.90000
    39,'A39         ', 138.0000,1,   1,   1,   1,0.99648, -24.7155,1.05000,0.95000,1.10000,0.90000
    40,'A40         ', 138.0000,1,   1,   1,   1,1.00379, -18.6906,1.05000,0.95000,1.10000,0.90000
    41,'A41         ', 138.0000,1,   1,   1,   1,1.00381, -18.6969,1.05000,0.95000,1.10000,0.90000
    42,'A42         ', 138.0000,1,   1,   1,   1,1.00679, -18.8439,1.05000,0.95000,1.10000,0.90000
    43,'A43         ', 138.0000,1,   1,   1,   1,1.00682, -18.8419,1.05000,0.95000,1.10000,0.90000
    44,'A44         ', 138.0000,1,   1,   1,   1,0.98206, -19.9139,1.05000,0.95000,1.10000,0.90000
    45,'A45         ', 138.0000,1,   1,   1,   1,0.98204, -19.9280,1.05000,0.95000,1.10000,0.90000
    46,'A46         ', 138.0000,2,   1,   1,   1,0.99751, -19.6763,1.05000,0.95000,1.10000,0.90000
    47,'A47         ', 138.0000,1,   1,   1,   1,0.98968, -20.7229,1.05000,0.95000,1.10000,0.90000
    48,'A48         ', 138.0000,1,   1,   1,   1,0.98954, -20.7254,1.05000,0.95000,1.10000,0.90000
    49,'A49         ', 138.0000,1,   1,   1,   1,0.99549, -25.2660,1.05000,0.95000,1.10000,0.90000
    50,'A50         ', 138.0000,1,   1,   1,   1,1.00107, -21.4980,1.05000,0.95000,1.10000,0.90000
    51,'A51         ', 138.0000,1,   1,   1,   1,1.00107, -21.4980,1.05000,0.95000,1.10000,0.90000
    52,'A52         ', 138.0000,1,   1,   1,   1,0.98461, -20.6648,1.05000,0.95000,1.10000,0.90000
    53,'A53         ', 138.0000,2,   1,   1,   1,0.99793, -19.1040,1.05000,0.95000,1.10000,0.90000
    54,'A54         ', 138.0000,1,   1,   1,   1,1.00411, -17.6894,1.05000,0.95000,1.10000,0.90000
    55,'A55         ', 138.0000,1,   1,   1,   1,1.00416, -17.7055,1.05000,0.95000,1.10000,0.90000
    56,'A56         ', 138.0000,1,   1,   1,   1,1.00110, -21.6072,1.05000,0.95000,1.10000,0.90000
    57,'A57         ', 138.0000,1,   1,   1,   1,1.00087, -21.5651,1.05000,0.95000,1.10000,0.90000
    58,'A58         ', 138.0000,1,   1,   1,   1,1.00350, -17.8731,1.05000,0.95000,1.10000,0.90000
    59,'A59         ', 138.0000,1,   1,   1,   1,1.00623, -18.0744,1.05000,0.95000,1.10000,0.90000
    60,'A60         ', 138.0000,1,   1,   1,   1,0.98576, -20.7437,1.05000,0.95000,1.10000,0.90000
    61,'A61         ', 138.0000,1,   1,   1,   1,0.98578, -20.7419,1.05000,0.95000,1.10000,0.90000
    62,'A62         ', 138.0000,1,   1,   1,   1,1.00590, -17.0306,1.05000,0.95000,1.10000,0.90000
    63,'A63         ', 138.0000,1,   1,   1,   1,1.00584, -17.0117,1.05000,0.95000,1.10000,0.90000
    64,'A64         ', 138.0000,1,   1,   1,   1,1.00410, -17.8580,1.05000,0.95000,1.10000,0.90000
    65,'A65         ', 138.0000,1,   1,   1,   1,1.00551, -17.7702,1.05000,0.95000,1.10000,0.90000
    66,'A66         ', 138.0000,1,   1,   1,   1,0.99899, -22.2155,1.05000,0.95000,1.10000,0.90000
    67,'A67         ', 138.0000,2,   1,   1,   1,0.99898, -22.2235,1.05000,0.95000,1.10000,0.90000
    68,'A68         ', 138.0000,2,   1,   1,   1,1.00858, -15.5320,1.05000,0.95000,1.10000,0.90000
    69,'A69         ', 138.0000,1,   1,   1,   1,0.99222, -20.6735,1.05000,0.95000,1.10000,0.90000
    70,'A70         ', 138.0000,1,   1,   1,   1,0.97884, -20.2257,1.05000,0.95000,1.10000,0.90000
    71,'B71         ', 345.0000,1,   2,   2,   1,0.99231, -13.1559,1.05000,0.95000,1.10000,0.90000
    72,'B72         ', 345.0000,1,   2,   2,   1,0.99231, -13.1559,1.05000,0.95000,1.10000,0.90000
    73,'B73         ', 345.0000,1,   2,   2,   1,1.00084, -11.4886,1.05000,0.95000,1.10000,0.90000
    74,'B74         ', 345.0000,1,   2,   2,   1,1.00084, -11.4886,1.05000,0.95000,1.10000,0.90000
    75,'B75         ', 345.0000,2,   2,   2,   1,1.00775, -13.0488,1.05000,0.95000,1.10000,0.90000
    76,'B76         ', 345.0000,2,   2,   2,   1,1.00788, -13.0478,1.05000,0.95000,1.10000,0.90000
    77,'B77         ', 500.0000,2,   2,   2,   1,1.00260, -15.8037,1.05000,0.95000,1.10000,0.90000
    78,'B78         ', 345.0000,2,   2,   2,   1,0.99160, -13.4356,1.05000,0.95000,1.10000,0.90000
    79,'B79         ', 345.0000,1,   2,   2,   1,0.99181, -12.3262,1.05000,0.95000,1.10000,0.90000
    80,'B80         ', 345.0000,1,   2,   2,   1,0.99181, -12.3262,1.05000,0.95000,1.10000,0.90000
    81,'B81         ', 345.0000,1,   2,   2,   1,0.99217, -13.0944,1.05000,0.95000,1.10000,0.90000
    82,'B82         ', 345.0000,1,   2,   2,   1,0.99217, -13.0920,1.05000,0.95000,1.10000,0.90000
    83,'B83         ', 138.0000,1,   2,   2,   1,0.97304, -13.9182,1.05000,0.95000,1.10000,0.90000
    84,'B84         ', 138.0000,1,   2,   2,   1,0.98215, -12.7835,1.05000,0.95000,1.10000,0.90000
    85,'B85         ', 138.0000,1,   2,   2,   1,1.00526, -11.8789,1.05000,0.95000,1.10000,0.90000
    86,'B86         ', 138.0000,1,   2,   2,   1,1.00013, -15.5016,1.05000,0.95000,1.10000,0.90000
    87,'B87         ', 138.0000,1,   2,   2,   1,0.97555,  -9.1173,1.05000,0.95000,1.10000,0.90000
    88,'B88         ', 138.0000,1,   2,   2,   1,0.98407,  -9.3343,1.05000,0.95000,1.10000,0.90000
    89,'B89         ', 138.0000,1,   2,   2,   1,0.98219, -13.6784,1.05000,0.95000,1.10000,0.90000
    90,'B90         ', 138.0000,2,   2,   2,   1,0.97703, -17.0961,1.05000,0.95000,1.10000,0.90000
    91,'B91         ', 138.0000,1,   2,   2,   1,0.98895,  -6.8441,1.05000,0.95000,1.10000,0.90000
    92,'B92         ', 138.0000,2,   2,   2,   1,1.00542, -11.8620,1.05000,0.95000,1.10000,0.90000
    93,'B93         ', 138.0000,1,   2,   2,   1,1.00542, -11.8620,1.05000,0.95000,1.10000,0.90000
    94,'B94         ', 138.0000,1,   2,   2,   1,0.97020, -13.3913,1.05000,0.95000,1.10000,0.90000
    95,'B95         ', 138.0000,2,   2,   2,   1,0.96306, -17.5153,1.05000,0.95000,1.10000,0.90000
    96,'B96         ', 138.0000,2,   2,   2,   1,0.97661, -14.0737,1.05000,0.95000,1.10000,0.90000
    97,'B97         ', 138.0000,1,   2,   2,   1,0.97643, -14.0829,1.05000,0.95000,1.10000,0.90000
    98,'B98         ', 138.0000,2,   2,   2,   1,1.00358, -10.6280,1.05000,0.95000,1.10000,0.90000
    99,'B99         ', 138.0000,2,   2,   2,   1,1.00788,  -9.3728,1.05000,0.95000,1.10000,0.90000
   100,'B100        ', 138.0000,1,   2,   2,   1,0.96912, -14.6914,1.05000,0.95000,1.10000,0.90000
   101,'B101        ', 138.0000,1,   2,   2,   1,0.99973, -12.2973,1.05000,0.95000,1.10000,0.90000
   102,'B102        ', 138.0000,1,   2,   2,   1,0.97080, -14.0515,1.05000,0.95000,1.10000,0.90000
   103,'B103        ', 138.0000,1,   2,   2,   1,1.00299, -10.7168,1.05000,0.95000,1.10000,0.90000
   104,'B104        ', 138.0000,1,   2,   2,   1,0.96286, -16.0563,1.05000,0.95000,1.10000,0.90000
   105,'B105        ', 138.0000,1,   2,   2,   1,1.00616, -11.9531,1.05000,0.95000,1.10000,0.90000
   106,'B106        ', 138.0000,1,   2,   2,   1,0.98739, -13.4240,1.05000,0.95000,1.10000,0.90000
   107,'B107        ', 138.0000,1,   2,   2,   1,0.97773, -12.6374,1.05000,0.95000,1.10000,0.90000
   108,'B108        ', 138.0000,1,   2,   2,   1,0.97526, -14.0606,1.05000,0.95000,1.10000,0.90000
   109,'B109        ', 138.0000,1,   2,   2,   1,0.98719, -13.5897,1.05000,0.95000,1.10000,0.90000
   110,'B110        ', 138.0000,1,   2,   2,   1,0.97694, -10.9617,1.05000,0.95000,1.10000,0.90000
   111,'B111        ', 138.0000,1,   2,   2,   1,0.96737, -15.0079,1.05000,0.95000,1.10000,0.90000
   112,'B112        ', 138.0000,2,   2,   2,   1,0.98884, -13.4494,1.05000,0.95000,1.10000,0.90000
   113,'B113        ', 138.0000,1,   2,   2,   1,0.97753,  -8.8246,1.05000,0.95000,1.10000,0.90000
   114,'B114        ', 138.0000,1,   2,   2,   1,0.98200, -12.9111,1.05000,0.95000,1.10000,0.90000
   115,'B115        ', 138.0000,1,   2,   2,   1,0.98618, -12.4610,1.05000,0.95000,1.10000,0.90000
   116,'B116        ', 138.0000,1,   2,   2,   1,0.96334, -15.4442,1.05000,0.95000,1.10000,0.90000
   117,'B117        ', 138.0000,1,   2,   2,   1,0.96569, -18.3418,1.05000,0.95000,1.10000,0.90000
   118,'B118        ', 138.0000,1,   2,   2,   1,0.97351, -14.0632,1.05000,0.95000,1.10000,0.90000
   119,'B119        ', 138.0000,1,   2,   2,   1,0.97436, -11.8574,1.05000,0.95000,1.10000,0.90000
   120,'B120        ', 138.0000,2,   2,   2,   1,0.98648, -13.3789,1.05000,0.95000,1.10000,0.90000
   121,'B121        ', 138.0000,1,   2,   2,   1,0.98637, -13.3836,1.05000,0.95000,1.10000,0.90000
   122,'B122        ', 138.0000,1,   2,   2,   1,0.96965, -14.2719,1.05000,0.95000,1.10000,0.90000
   123,'B123        ', 138.0000,1,   2,   2,   1,0.97839, -13.9573,1.05000,0.95000,1.10000,0.90000
   124,'B124        ', 138.0000,2,   2,   2,   1,0.97283, -13.8539,1.05000,0.95000,1.10000,0.90000
   125,'B125        ', 138.0000,2,   2,   2,   1,0.97265, -13.8459,1.05000,0.95000,1.10000,0.90000
   126,'B126        ', 138.0000,1,   2,   2,   1,0.98289, -13.3036,1.05000,0.95000,1.10000,0.90000
   127,'B127        ', 138.0000,2,   2,   2,   1,0.96641, -15.1410,1.05000,0.95000,1.10000,0.90000
   128,'B128        ', 138.0000,2,   2,   2,   1,0.96649, -15.1531,1.05000,0.95000,1.10000,0.90000
   129,'B129        ', 138.0000,1,   2,   2,   1,0.97653, -14.0776,1.05000,0.95000,1.10000,0.90000
   130,'B130        ', 138.0000,1,   2,   2,   1,0.97692,  -8.8664,1.05000,0.95000,1.10000,0.90000
   131,'B131        ', 138.0000,1,   2,   2,   1,0.98823, -13.4912,1.05000,0.95000,1.10000,0.90000
   132,'B132        ', 138.0000,1,   2,   2,   1,0.96346, -15.4938,1.05000,0.95000,1.10000,0.90000
   133,'B133        ', 138.0000,1,   2,   2,   1,0.96206, -15.5529,1.05000,0.95000,1.10000,0.90000
   134,'B134        ', 138.0000,1,   2,   2,   1,0.96257, -15.5124,1.05000,0.95000,1.10000,0.90000
   135,'B135        ', 138.0000,2,   2,   2,   1,1.00718,  -2.0889,1.05000,0.95000,1.10000,0.90000
   136,'B136        ', 138.0000,2,   2,   2,   1,0.97526, -13.8371,1.05000,0.95000,1.10000,0.90000
   137,'B137        ', 138.0000,1,   2,   2,   1,0.97604, -14.1119,1.05000,0.95000,1.10000,0.90000
   138,'B138        ', 138.0000,2,   2,   2,   1,0.96476, -18.0025,1.05000,0.95000,1.10000,0.90000
   139,'B139        ', 138.0000,1,   2,   2,   1,0.97264, -14.0278,1.05000,0.95000,1.10000,0.90000
   140,'B140        ', 138.0000,1,   2,   2,   1,1.00289, -13.2291,1.05000,0.95000,1.10000,0.90000
   141,'B141        ', 138.0000,1,   2,   2,   1,0.97479,  -9.2157,1.05000,0.95000,1.10000,0.90000
   142,'B142        ', 138.0000,1,   2,   2,   1,0.96397, -15.4533,1.05000,0.95000,1.10000,0.90000
   143,'B143        ', 138.0000,1,   2,   2,   1,0.98683, -12.3327,1.05000,0.95000,1.10000,0.90000
   144,'B144        ', 138.0000,1,   2,   2,   1,0.98035, -13.7282,1.05000,0.95000,1.10000,0.90000
   145,'B145        ', 138.0000,1,   2,   2,   1,0.98807, -13.4359,1.05000,0.95000,1.10000,0.90000
   146,'B146        ', 138.0000,1,   2,   2,   1,0.97520, -14.2056,1.05000,0.95000,1.10000,0.90000
   147,'B147        ', 138.0000,1,   2,   2,   1,0.98022, -13.7366,1.05000,0.95000,1.10000,0.90000
   148,'B148        ', 138.0000,1,   2,   2,   1,0.97024, -14.3027,1.05000,0.95000,1.10000,0.90000
   149,'B149        ', 138.0000,1,   2,   2,   1,0.97298, -12.7097,1.05000,0.95000,1.10000,0.90000
   150,'B150        ', 345.0000,2,   2,   2,   1,1.00794, -13.6820,1.05000,0.95000,1.10000,0.90000
   151,'C151        ', 345.0000,1,   3,   3,   1,0.99417, -14.4627,1.05000,0.95000,1.10000,0.90000
   152,'C152        ', 500.0000,1,   3,   3,   1,1.00003, -13.6454,1.05000,0.95000,1.10000,0.90000
   153,'C153        ', 500.0000,2,   3,   3,   1,1.00000, -13.6401,1.05000,0.95000,1.10000,0.90000
   154,'C154        ', 500.0000,1,   3,   3,   1,0.99623, -17.1444,1.05000,0.95000,1.10000,0.90000
   155,'C155        ', 500.0000,1,   3,   3,   1,0.99627, -17.1199,1.05000,0.95000,1.10000,0.90000
   156,'C156        ', 500.0000,1,   3,   3,   1,1.00602, -21.3562,1.05000,0.95000,1.10000,0.90000
   157,'C157        ', 345.0000,2,   3,   3,   1,0.99373, -20.3749,1.05000,0.95000,1.10000,0.90000
   158,'C158        ', 500.0000,2,   3,   3,   1,0.96403, -21.1180,1.05000,0.95000,1.10000,0.90000
   159,'C159        ', 500.0000,1,   3,   3,   1,0.96403, -21.1180,1.05000,0.95000,1.10000,0.90000
   160,'C160        ', 500.0000,1,   3,   3,   1,0.98584, -16.3528,1.05000,0.95000,1.10000,0.90000
   161,'C161        ', 500.0000,2,   3,   3,   1,0.98558, -16.3484,1.05000,0.95000,1.10000,0.90000
   162,'C162        ', 500.0000,1,   3,   3,   1,0.99836, -15.7476,1.05000,0.95000,1.10000,0.90000
   163,'C163        ', 500.0000,1,   3,   3,   1,1.00771, -13.5286,1.05000,0.95000,1.10000,0.90000
   164,'C164        ', 500.0000,1,   3,   3,   1,1.00764, -13.5309,1.05000,0.95000,1.10000,0.90000
   165,'C165        ', 500.0000,2,   3,   3,   1,1.00432, -15.3128,1.05000,0.95000,1.10000,0.90000
   166,'C166        ', 500.0000,2,   3,   3,   1,1.00445, -15.3284,1.05000,0.95000,1.10000,0.90000
   167,'C167        ', 138.0000,1,   3,   3,   1,1.00278,  -8.9821,1.05000,0.95000,1.10000,0.90000
   168,'C168        ', 138.0000,2,   3,   3,   1,1.00586, -16.3397,1.05000,0.95000,1.10000,0.90000
   169,'C169        ', 138.0000,2,   3,   3,   1,1.00559, -16.3340,1.05000,0.95000,1.10000,0.90000
   170,'C170        ', 138.0000,1,   3,   3,   1,1.00374, -17.6295,1.05000,0.95000,1.10000,0.90000
   171,'C171        ', 138.0000,2,   3,   3,   1,1.00671,  -5.4733,1.05000,0.95000,1.10000,0.90000
   172,'C172        ', 138.0000,1,   3,   3,   1,0.98200, -20.3059,1.05000,0.95000,1.10000,0.90000
   173,'C173        ',  32.0000,1,   3,   3,   1,1.03022, -21.4963,1.05000,0.95000,1.10000,0.90000
   174,'C174        ', 138.0000,1,   3,   3,   1,0.99907, -17.8473,1.05000,0.95000,1.10000,0.90000
   175,'C175        ', 138.0000,1,   3,   3,   1,1.00014, -16.9108,1.05000,0.95000,1.10000,0.90000
   176,'C176        ', 138.0000,1,   3,   3,   1,1.00014, -16.9030,1.05000,0.95000,1.10000,0.90000
   177,'C177        ', 138.0000,2,   3,   3,   1,1.00750, -13.7952,1.05000,0.95000,1.10000,0.90000
   178,'C178        ', 138.0000,2,   3,   3,   1,1.00788, -13.6741,1.05000,0.95000,1.10000,0.90000
   179,'C179        ', 138.0000,1,   3,   3,   1,0.99857, -17.1312,1.05000,0.95000,1.10000,0.90000
   180,'C180        ', 138.0000,1,   3,   3,   1,0.99992, -16.9274,1.05000,0.95000,1.10000,0.90000
   181,'C181        ', 138.0000,1,   3,   3,   1,0.99889, -17.8136,1.05000,0.95000,1.10000,0.90000
   182,'C182        ', 138.0000,1,   3,   3,   1,1.00114, -16.8114,1.05000,0.95000,1.10000,0.90000
   183,'C183        ', 138.0000,2,   3,   3,   1,1.00718,  -5.0195,1.05000,0.95000,1.10000,0.90000
   184,'C184        ', 138.0000,1,   3,   3,   1,1.00698,  -5.5740,1.05000,0.95000,1.10000,0.90000
   185,'C185        ', 138.0000,2,   3,   3,   1,1.00980, -17.3511,1.05000,0.95000,1.10000,0.90000
   186,'C186        ', 138.0000,1,   3,   3,   1,1.00231, -16.6879,1.05000,0.95000,1.10000,0.90000
   187,'C187        ',  16.0000,1,   3,   3,   1,1.02192, -15.8622,1.05000,0.95000,1.10000,0.90000
   188,'C188        ', 138.0000,2,   3,   3,   1,1.00788, -12.3650,1.05000,0.95000,1.10000,0.90000
   189,'C189        ', 138.0000,1,   3,   3,   1,0.99323,  -9.1747,1.05000,0.95000,1.10000,0.90000
   190,'C190        ', 138.0000,1,   3,   3,   1,0.98207, -20.3071,1.05000,0.95000,1.10000,0.90000
   191,'C191        ', 138.0000,1,   3,   3,   1,0.99808, -17.2520,1.05000,0.95000,1.10000,0.90000
   192,'C192        ', 138.0000,1,   3,   3,   1,1.00204, -15.3661,1.05000,0.95000,1.10000,0.90000
   193,'C193        ', 138.0000,1,   3,   3,   1,1.00411, -16.0236,1.05000,0.95000,1.10000,0.90000
   194,'C194        ', 138.0000,2,   3,   3,   1,0.99877, -17.8699,1.05000,0.95000,1.10000,0.90000
   195,'C195        ', 138.0000,2,   3,   3,   1,1.00788,  -6.0905,1.05000,0.95000,1.10000,0.90000
   196,'C196        ', 138.0000,1,   3,   3,   1,0.99195,  -9.3555,1.05000,0.95000,1.10000,0.90000
   197,'C197        ', 138.0000,1,   3,   3,   1,0.99292,  -9.2062,1.05000,0.95000,1.10000,0.90000
   198,'C198        ', 138.0000,1,   3,   3,   1,1.00696,  -5.8310,1.05000,0.95000,1.10000,0.90000
   199,'C199        ', 138.0000,1,   3,   3,   1,0.99678,  -8.7555,1.05000,0.95000,1.10000,0.90000
   200,'C200        ', 138.0000,1,   3,   3,   1,0.99673,  -8.6505,1.05000,0.95000,1.10000,0.90000
...
0 / END OF BUS DATA, BEGIN LOAD DATA
     2,'99',0,   1,   1,    13.121,    -7.435,     0.000,     0.000,     0.000,     0.000,   1,1,0
     3,'1 ',1,   1,   1,     1.776,     1.220,     0.000,     0.000,     0.000,     0.000,   1,1,0
     4,'99',0,   1,   1,    26.870,    -9.742,     0.000,     0.000,     0.000,     0.000,   1,1,0
     6,'99',0,   1,   1,    79.520,    41.295,     0.000,     0.000,     0.000,     0.000,   1,1,0
     9,'1 ',1,   1,   1,    11.628,    23.774,     0.000,     0.000,     0.000,     0.000,   1,1,0
     9,'99',1,   1,   1,   129.749,   -89.991,     0.000,     0.000,     0.000,     0.000,   1,1,0
    10,'1 ',1,   1,   1,    26.528,    46.647,     0.000,     0.000,     0.000,     0.000,   1,1,0
    11,'1 ',1,   1,   1,     7.993,     4.798,     0.000,     0.000,     0.000,     0.000,   1,1,0
    12,'1 ',1,   1,   1,     1.278,     2.556,     0.000,     0.000,     0.000,     0.000,   1,1,0
    12,'99',1,   1,   1,    12.132,     4.274,     0.000,     0.000,     0.000,     0.000,   1,1,0
    13,'1 ',1,   1,   1,     4.044,     1.591,     0.000,     0.000,     0.000,     0.000,   1,1,0
    14,'1 ',1,   1,   1,     2.798,     0.626,     0.000,     0.000,     0.000,     0.000,   1,1,0
    14,'99',1,   1,   1,    10.264,     4.384,     0.000,     0.000,     0.000,     0.000,   1,1,0
    15,'1 ',1,   1,   1,     0.275,     0.064,     0.000,     0.000,     0.000,     0.000,   1,1,0
    17,'1 ',1,   1,   1,     6.824,     2.952,     0.000,     0.000,     0.000,     0.000,   1,1,0
    18,'1 ',1,   1,   1,     1.572,     0.511,     0.000,     0.000,     0.000,     0.000,   1,1,0
    19,'1 ',1,   1,   1,     0.958,     0.319,     0.000,     0.000,     0.000,     0.000,   1,1,0
    20,'1 ',1,   1,   1,     1.022,    -0.345,     0.000,     0.000,     0.000,     0.000,   1,1,0
    20,'99',1,   1,   1,    12.102,   -22.392,     0.000,     0.000,     0.000,     0.000,   1,1,0
    21,'1 ',1,   1,   1,     9.309,     1.981,     0.000,     0.000,     0.000,     0.000,   1,1,0
    23,'1 ',1,   1,   1,    25.557,     0.000,     0.000,     0.000,     0.000,     0.000,   1,1,0
    23,'99',1,   1,   1,     1.601,    -8.222,     0.000,     0.000,     0.000,     0.000,   1,1,0
    24,'1 ',1,   1,   1,     5.456,     3.207,     0.000,     0.000,     0.000,     0.000,   1,1,0
    25,'1 ',1,   1,   1,     0.000,    -0.256,     0.000,     0.000,     0.000,     0.000,   1,1,0
    26,'1 ',1,   1,   1,    22.624,     8.057,     0.000,     0.000,     0.000,     0.000,   1,1,0
    27,'1 ',1,   1,   1,     2.869,     0.958,     0.000,     0.000,     0.000,     0.000,   1,1,0
    29,'1 ',1,   1,   1,     6.076,     2.370,     0.000,     0.000,     0.000,     0.000,   1,1,0
    31,'1 ',1,   1,   1,     3.137,     1.093,     0.000,     0.000,     0.000,     0.000,   1,1,0
    32,'1 ',1,   1,   1,     4.504,     2.243,     0.000,     0.000,     0.000,     0.000,   1,1,0
    33,'1 ',1,   1,   1,     4.504,     2.952,     0.000,     0.000,     0.000,     0.000,   1,1,0
    35,'1 ',1,   1,   1,     1.022,     0.319,     0.000,     0.000,     0.000,     0.000,   1,1,0
    39,'1 ',1,   1,   1,     3.009,     0.307,     0.000,     0.000,     0.000,     0.000,   1,1,0
    39,'99',0,   1,   1,    12.258,    -0.483,     0.000,     0.000,     0.000,     0.000,   1,1,0
    41,'1 ',1,   1,   1,     1.093,     0.383,     0.000,     0.000,     0.000,     0.000,   1,1,0
    42,'1 ',1,   1,   1,     3.891,     0.575,     0.000,     0.000,     0.000,     0.000,   1,1,0
    43,'99',0,   1,   1,    14.328,     3.859,     0.000,     0.000,     0.000,     0.000,   1,1,0
    44,'1 ',1,   1,   1,     2.843,     0.498,     0.000,     0.000,     0.000,     0.000,   1,1,0
    44,'99',1,   1,   1,     7.282,     4.810,     0.000,     0.000,     0.000,     0.000,   1,1,0
    45,'1 ',1,   1,   1,     3.163,     1.457,     0.000,     0.000,     0.000,     0.000,   1,1,0
    46,'1 ',1,   1,   1,     5.942,     1.993,     0.000,     0.000,     0.000,     0.000,   1,1,0
    46,'99',1,   1,   1,    17.818,     7.976,     0.000,     0.000,     0.000,     0.000,   1,1,0
    47,'1 ',1,   1,   1,     7.482,     2.677,     0.000,     0.000,     0.000,     0.000,   1,1,0
    48,'1 ',1,   1,   1,     0.000,     0.096,     0.000,     0.000,     0.000,     0.000,   1,1,0
    49,'1 ',1,   1,   1,    11.449,     2.690,     0.000,     0.000,     0.000,     0.000,   1,1,0
    49,'99',0,   1,   1,    23.502,    -4.087,     0.000,     0.000,     0.000,     0.000,   1,1,0
    52,'1 ',1,   1,   1,    11.877,     3.782,     0.000,     0.000,     0.000,     0.000,   1,1,0
    53,'1 ',1,   1,   1,     5.060,     2.057,     0.000,     0.000,     0.000,     0.000,   1,1,0
    54,'1 ',1,   1,   1,     2.460,     1.348,     0.000,     0.000,     0.000,     0.000,   1,1,0
    55,'1 ',1,   1,   1,     0.204,     0.000,     0.000,     0.000,     0.000,     0.000,   1,1,0
    56,'1 ',1,   1,   1,     4.517,     1.674,     0.000,     0.000,     0.000,     0.000,   1,1,0
    57,'1 ',1,   1,   1,     2.664,     0.952,     0.000,     0.000,     0.000,     0.000,   1,1,0
    58,'1 ',1,   1,   1,     2.530,     0.888,     0.000,     0.000,     0.000,     0.000,   1,1,0
    58,'99',1,   1,   1,    29.321,    -4.642,     0.000,     0.000,     0.000,     0.000,   1,1,0
    59,'1 ',1,   1,   1,     4.236,     1.425,     0.000,     0.000,     0.000,     0.000,   1,1,0
    60,'1 ',1,   1,   1,     0.958,     0.256,     0.000,     0.000,     0.000,     0.000,   1,1,0
    61,'99',1,   1,   1,     5.737,    15.504,     0.000,     0.000,     0.000,     0.000,   1,1,0
    63,'1 ',1,   1,   1,     3.003,     0.990,     0.000,     0.000,     0.000,     0.000,   1,1,0
    64,'1 ',1,   1,   1,     1.501,     0.511,     0.000,     0.000,     0.000,     0.000,   1,1,0
    65,'1 ',1,   1,   1,     1.367,     0.447,     0.000,     0.000,     0.000,     0.000,   1,1,0
    66,'1 ',1,   1,   1,     4.722,     1.744,     0.000,     0.000,     0.000,     0.000,   1,1,0
    67,'1 ',1,   1,   1,     6.166,     2.383,     0.000,     0.000,     0.000,     0.000,   1,1,0
    68,'1 ',1,   1,   1,    10.989,    21.602,     0.000,     0.000,     0.000,     0.000,   1,1,0
    70,'1 ',1,   1,   1,    15.973,     4.472,     0.000,     0.000,     0.000,     0.000,   1,1,0
    75,'1 ',1,   2,   2,     7.667,    19.168,     0.000,     0.000,     0.000,     0.000,   1,1,0
    76,'1 ',1,   2,   2,    12.721,    23.365,     0.000,     0.000,     0.000,     0.000,   1,1,0
    77,'1 ',1,   2,   2,     7.667,    19.168,     0.000,     0.000,     0.000,     0.000,   1,1,0
    83,'1 ',1,   2,   2,     7.316,     1.687,     0.000,     0.000,     0.000,     0.000,   1,1,0
    84,'1 ',1,   2,   2,    16.554,     4.102,     0.000,     0.000,     0.000,     0.000,   1,1,0
    86,'1 ',1,   2,   2,     3.859,     1.546,     0.000,     0.000,     0.000,     0.000,   1,1,0
    86,'99',0,   2,   2,     9.663,     6.313,     0.000,     0.000,     0.000,     0.000,   1,1,0
    87,'1 ',1,   2,   2,     1.930,     0.811,     0.000,     0.000,     0.000,     0.000,   1,1,0
    88,'1 ',1,   2,   2,     4.236,     0.409,     0.000,     0.000,     0.000,     0.000,   1,1,0
    89,'1 ',1,   2,   2,     7.980,     3.099,     0.000,     0.000,     0.000,     0.000,   1,1,0
    90,'1 ',1,   2,   2,     2.319,     0.339,     0.000,     0.000,     0.000,     0.000,   1,1,0
    91,'1 ',1,   2,   2,     2.262,     0.741,     0.000,     0.000,     0.000,     0.000,   1,1,0
    92,'1 ',1,   2,   2,    12.280,    21.020,     0.000,     0.000,     0.000,     0.000,   1,1,0
    94,'1 ',1,   2,   2,     1.463,     0.537,     0.000,     0.000,     0.000,     0.000,   1,1,0
    95,'1 ',1,   2,   2,     2.997,     1.220,     0.000,     0.000,     0.000,     0.000,   1,1,0
    96,'1 ',1,   2,   2,     0.064,    -0.505,     0.000,     0.000,     0.000,     0.000,   1,1,0
    97,'1 ',1,   2,   2,     0.064,     0.032,     0.000,     0.000,     0.000,     0.000,   1,1,0
    97,'99',1,   2,   2,     3.498,     1.225,     0.000,     0.000,     0.000,     0.000,   1,1,0
    98,'1 ',1,   2,   2,     1.923,     3.201,     0.000,     0.000,     0.000,     0.000,   1,1,0
    98,'99',1,   2,   2,    11.005,    13.105,     0.000,     0.000,     0.000,     0.000,   1,1,0
    99,'1 ',1,   2,   2,     0.006,     0.006,     0.000,     0.000,     0.000,     0.000,   1,1,0
    99,'99',1,   2,   2,     8.022,     5.917,     0.000,     0.000,     0.000,     0.000,   1,1,0
   100,'1 ',1,   2,   2,     8.248,     3.028,     0.000,     0.000,     0.000,     0.000,   1,1,0
   101,'1 ',1,   2,   2,     5.987,     2.421,     0.000,     0.000,     0.000,     0.000,   1,1,0
   102,'1 ',1,   2,   2,     9.047,     3.635,     0.000,     0.000,     0.000,     0.000,   1,1,0
   103,'1 ',1,   2,   2,     7.284,     2.390,     0.000,     0.000,     0.000,     0.000,   1,1,0
   104,'1 ',1,   2,   2,     6.651,     2.428,     0.000,     0.000,     0.000,     0.000,   1,1,0
   107,'1 ',1,   2,   2,     3.508,     0.409,     0.000,     0.000,     0.000,     0.000,   1,1,0
   108,'1 ',1,   2,   2,     4.389,     1.278,     0.000,     0.000,     0.000,     0.000,   1,1,0
   109,'1 ',1,   2,   2,     3.591,     1.482,     0.000,     0.000,     0.000,     0.000,   1,1,0
   110,'1 ',1,   2,   2,     2.658,     1.080,     0.000,     0.000,     0.000,     0.000,   1,1,0
   111,'1 ',1,   2,   2,     0.933,     0.339,     0.000,     0.000,     0.000,     0.000,   1,1,0
   112,'1 ',1,   2,   2,     1.144,     0.486,     0.000,     0.000,     0.000,     0.000,   1,1,0
   113,'1 ',1,   2,   2,     1.067,     0.473,     0.000,     0.000,     0.000,     0.000,   1,1,0
   114,'1 ',1,   2,   2,     1.987,     0.549,     0.000,     0.000,     0.000,     0.000,   1,1,0
   115,'1 ',1,   2,   2,     3.048,     0.345,     0.000,     0.000,     0.000,     0.000,   1,1,0
   116,'1 ',1,   2,   2,     4.524,     1.144,     0.000,     0.000,     0.000,     0.000,   1,1,0
   117,'1 ',1,   2,   2,     7.316,     2.965,     0.000,     0.000,     0.000,     0.000,   1,1,0
   118,'1 ',1,   2,   2,     5.386,     2.153,     0.000,     0.000,     0.000,     0.000,   1,1,0
   119,'1 ',1,   2,   2,     4.325,    -1.086,     0.000,     0.000,     0.000,     0.000,   1,1,0
   120,'1 ',1,   2,   2,    13.973,     8.089,     0.000,     0.000,     0.000,     0.000,   1,1,0
   121,'1 ',1,   2,   2,    15.960,    14.816,     0.000,     0.000,     0.000,     0.000,   1,1,0
   122,'1 ',1,   2,   2,     9.309,     2.696,     0.000,     0.000,     0.000,     0.000,   1,1,0
   123,'1 ',1,   2,   2,    10.306,     3.028,     0.000,     0.000,     0.000,     0.000,   1,1,0
   124,'1 ',1,   2,   2,     3.412,     1.131,     0.000,     0.000,     0.000,     0.000,   1,1,0
   125,'1 ',1,   2,   2,     3.623,     3.731,     0.000,     0.000,     0.000,     0.000,   1,1,0
   126,'1 ',1,   2,   2,     4.920,     2.019,     0.000,     0.000,     0.000,     0.000,   1,1,0
   128,'1 ',1,   2,   2,     4.728,     1.623,     0.000,     0.000,     0.000,     0.000,   1,1,0
   129,'1 ',1,   2,   2,     0.767,     0.300,     0.000,     0.000,     0.000,     0.000,   1,1,0
   130,'1 ',1,   2,   2,     3.655,     1.482,     0.000,     0.000,     0.000,     0.000,   1,1,0
   131,'1 ',1,   2,   2,     3.725,     1.482,     0.000,     0.000,     0.000,     0.000,   1,1,0
   132,'1 ',1,   2,   2,     3.993,     1.112,     0.000,     0.000,     0.000,     0.000,   1,1,0
   133,'1 ',1,   2,   2,     3.993,     1.112,     0.000,     0.000,     0.000,     0.000,   1,1,0
   134,'1 ',1,   2,   2,     0.403,     0.134,     0.000,     0.000,     0.000,     0.000,   1,1,0
   135,'1 ',1,   2,   2,     8.389,     3.373,     0.000,     0.000,     0.000,     0.000,   1,1,0
   136,'1 ',1,   2,   2,     5.987,     2.306,     0.000,     0.000,     0.000,     0.000,   1,1,0
   137,'1 ',1,   2,   2,     2.990,     1.214,     0.000,     0.000,     0.000,     0.000,   1,1,0
   138,'1 ',1,   2,   2,     4.127,     1.623,     0.000,     0.000,     0.000,     0.000,   1,1,0
   139,'1 ',1,   2,   2,    13.903,     3.897,     0.000,     0.000,     0.000,     0.000,   1,1,0
   140,'1 ',1,   2,   2,     1.329,     0.537,     0.000,     0.000,     0.000,     0.000,   1,1,0
   141,'1 ',1,   2,   2,     1.731,     0.671,     0.000,     0.000,     0.000,     0.000,   1,1,0
   142,'1 ',1,   2,   2,     2.594,     0.339,     0.000,     0.000,     0.000,     0.000,   1,1,0
   146,'1 ',1,   2,   2,     5.386,     1.955,     0.000,     0.000,     0.000,     0.000,   1,1,0
   147,'1 ',1,   2,   2,     2.396,     0.537,     0.000,     0.000,     0.000,     0.000,   1,1,0
   148,'1 ',1,   2,   2,    18.024,     6.600,     0.000,     0.000,     0.000,     0.000,   1,1,0
   149,'1 ',1,   2,   2,     0.997,     0.403,     0.000,     0.000,     0.000,     0.000,   1,1,0
   150,'1 ',1,   2,   2,   405.074,     0.000,     0.000,     0.000,     0.000,     0.000,   1,1,0
   151,'99',1,   3,   3,    52.072,    54.880,     0.000,     0.000,     0.000,     0.000,   1,1,0
   156,'99',0,   3,   3,   154.603,    71.724,     0.000,     0.000,     0.000,     0.000,   1,1,0
   162,'99',1,   3,   3,    22.179,    38.438,     0.000,     0.000,     0.000,     0.000,   1,1,0
   165,'1 ',1,   3,   3,     7.028,    25.557,     0.000,     0.000,     0.000,     0.000,   1,1,0
   166,'1 ',1,   3,   3,     3.195,     6.389,     0.000,     0.000,     0.000,     0.000,   1,1,0
   167,'1 ',1,   3,   3,     4.428,     1.987,     0.000,     0.000,     0.000,     0.000,   1,1,0
   168,'1 ',1,   3,   3,     9.360,     0.639,     0.000,     0.000,     0.000,     0.000,   1,1,0
   169,'1 ',1,   3,   3,     5.201,     0.843,     0.000,     0.000,     0.000,     0.000,   1,1,0
   170,'1 ',1,   3,   3,     9.053,     2.696,     0.000,     0.000,     0.000,     0.000,   1,1,0
   171,'1 ',1,   3,   3,     2.696,     0.639,     0.000,     0.000,     0.000,     0.000,   1,1,0
   172,'99',1,   3,   3,    84.279,    36.455,     0.000,     0.000,     0.000,     0.000,   1,1,0
   175,'1 ',1,   3,   3,     3.335,     1.348,     0.000,     0.000,     0.000,     0.000,   1,1,0
   176,'1 ',1,   3,   3,     1.668,     0.639,     0.000,     0.000,     0.000,     0.000,   1,1,0
   177,'1 ',1,   3,   3,     0.006,     0.006,     0.000,     0.000,     0.000,     0.000,   1,1,0
   178,'1 ',1,   3,   3,     0.006,     0.006,     0.000,     0.000,     0.000,     0.000,   1,1,0
   179,'1 ',1,   3,   3,    10.012,     3.335,     0.000,     0.000,     0.000,     0.000,   1,1,0
   180,'1 ',1,   3,   3,    10.721,     3.016,     0.000,     0.000,     0.000,     0.000,   1,1,0
   181,'1 ',1,   3,   3,     2.696,     0.319,     0.000,     0.000,     0.000,     0.000,   1,1,0
   182,'1 ',1,   3,   3,     6.932,     0.639,     0.000,     0.000,     0.000,     0.000,   1,1,0
   183,'1 ',1,   3,   3,     9.373,     1.987,     0.000,     0.000,     0.000,     0.000,   1,1,0
   184,'1 ',1,   3,   3,     4.817,     0.639,     0.000,     0.000,     0.000,     0.000,   1,1,0
   185,'1 ',1,   3,   3,     1.348,     0.319,     0.000,     0.000,     0.000,     0.000,   1,1,0
   186,'1 ',1,   3,   3,     3.661,     0.639,     0.000,     0.000,     0.000,     0.000,   1,1,0
   188,'1 ',1,   3,   3,     6.038,     1.668,     0.000,     0.000,     0.000,     0.000,   1,1,0
   189,'1 ',1,   3,   3,     2.696,     0.639,     0.000,     0.000,     0.000,     0.000,   1,1,0
   191,'1 ',1,   3,   3,    10.012,     1.668,     0.000,     0.000,     0.000,     0.000,   1,1,0
   192,'1 ',1,   3,   3,    12.708,     4.364,     0.000,     0.000,     0.000,     0.000,   1,1,0
   193,'1 ',1,   3,   3,     5.329,     1.731,     0.000,     0.000,     0.000,     0.000,   1,1,0
   194,'1 ',1,   3,   3,    10.721,     4.044,     0.000,     0.000,     0.000,     0.000,   1,1,0
   195,'1 ',1,   3,   3,     9.373,     1.987,     0.000,     0.000,     0.000,     0.000,   1,1,0
   196,'1 ',1,   3,   3,     3.335,     0.000,     0.000,     0.000,     0.000,     0.000,   1,1,0
   196,'99',1,   3,   3,     0.372,    -0.143,     0.000,     0.000,     0.000,     0.000,   1,1,0
   197,'1 ',1,   3,   3,     4.683,     1.348,     0.000,     0.000,     0.000,     0.000,   1,1,0
   198,'1 ',1,   3,   3,     3.335,     0.319,     0.000,     0.000,     0.000,     0.000,   1,1,0
   201,'1 ',1,   3,   3,     6.038,     0.639,     0.000,     0.000,     0.000,     0.000,   1,1,0
   202,'1 ',1,   3,   3,     5.329,     0.639,     0.000,     0.000,     0.000,     0.000,   1,1,0
   202,'99',1,   3,   3,     8.422,    -0.229,     0.000,     0.000,     0.000,     0.000,   1,1,0
   203,'1 ',1,   3,   3,     6.677,     0.639,     0.000,     0.000,     0.000,     0.000,   1,1,0
   204,'1 ',1,   3,   3,     5.329,     1.987,     0.000,     0.000,     0.000,     0.000,   1,1,0
   206,'1 ',1,   3,   3,     9.373,     1.987,     0.000,     0.000,     0.000,     0.000,   1,1,0
   207,'1 ',1,   3,   3,    19.449,     2.696,     0.000,     0.000,     0.000,     0.000,   1,1,0
   208,'1 ',1,   3,   3,    12.069,     3.016,     0.000,     0.000,     0.000,     0.000,   1,1,0
   209,'1 ',1,   3,   3,     7.379,     0.639,     0.000,     0.000,     0.000,     0.000,   1,1,0
   210,'1 ',1,   3,   3,    11.360,     2.696,     0.000,     0.000,     0.000,     0.000,   1,1,0
   212,'99',1,   3,   3,     0.170,    -0.963,     0.000,     0.000,     0.000,     0.000,   1,1,0
   213,'99',1,   3,   3,     1.942,    -0.549,     0.000,     0.000,     0.000,     0.000,   1,1,0
   218,'99',1,   4,   4,     8.550,    83.054,     0.000,     0.000,     0.000,     0.000,   1,1,0
   221,'99',0,   4,   4,    50.269,    14.410,     0.000,     0.000,     0.000,     0.000,   1,1,0
   222,'99',1,   4,   4,    62.583,    38.708,     0.000,     0.000,     0.000,     0.000,   1,1,0
   223,'1 ',1,   4,   4,     6.389,    28.112,     0.000,     0.000,     0.000,     0.000,   1,1,0
   224,'1 ',1,   4,   4,     6.389,    28.112,     0.000,     0.000,     0.000,     0.000,   1,1,0
   225,'1 ',1,   4,   4,    11.628,    23.774,     0.000,     0.000,     0.000,     0.000,   1,1,0
   225,'99',0,   4,   4,     4.862,  -115.845,     0.000,     0.000,     0.000,     0.000,   1,1,0
   226,'99',0,   4,   4,    40.753,   -19.411,     0.000,     0.000,     0.000,     0.000,   1,1,0
   227,'1 ',1,   4,   4,     0.000,    -0.505,     0.000,     0.000,     0.000,     0.000,   1,1,0
   228,'1 ',1,   4,   4,     0.000,    -0.505,     0.000,     0.000,     0.000,     0.000,   1,1,0
   229,'1 ',1,   4,   4,     2.319,     0.831,     0.000,     0.000,     0.000,     0.000,   1,1,0
   231,'99',1,   4,   4,    18.784,    -6.231,     0.000,     0.000,     0.000,     0.000,   1,1,0
   232,'99',0,   4,   4,    15.184,     4.564,     0.000,     0.000,     0.000,     0.000,   1,1,0
   233,'1 ',1,   4,   4,     6.824,     2.952,     0.000,     0.000,     0.000,     0.000,   1,1,0
   234,'1 ',1,   4,   4,     3.482,     2.626,     0.000,     0.000,     0.000,     0.000,   1,1,0
   235,'1 ',1,   4,   4,     0.134,     0.147,     0.000,     0.000,     0.000,     0.000,   1,1,0
   235,'99',1,   4,   4,    41.114,     9.981,     0.000,     0.000,     0.000,     0.000,   1,1,0
   236,'1 ',1,   4,   4,     1.022,    -0.345,     0.000,     0.000,     0.000,     0.000,   1,1,0
   238,'1 ',1,   4,   4,    36.418,    12.331,     0.000,     0.000,     0.000,     0.000,   1,1,0
   241,'99',1,   4,   4,    24.728,     5.097,     0.000,     0.000,     0.000,     0.000,   1,1,0
   242,'1 ',1,   4,   4,     0.754,     0.128,     0.000,     0.000,     0.000,     0.000,   1,1,0
   243,'99',1,   4,   4,    12.044,    -6.272,     0.000,     0.000,     0.000,     0.000,   1,1,0
   244,'1 ',1,   4,   4,     2.869,     0.958,     0.000,     0.000,     0.000,     0.000,   1,1,0
   246,'1 ',1,   4,   4,     6.389,    28.112,     0.000,     0.000,     0.000,     0.000,   1,1,0
...
0 / END OF LOAD DATA, BEGIN FIXED SHUNT DATA
     2,'99',1,     0.000,    -7.133
     4,'99',1,     0.000,    -9.601
     6,'99',1,     0.000,    41.987
    32,'99',1,     0.000,    -1.306
    39,'99',1,     0.000,    -0.488
    43,'99',1,     0.000,     3.712
    49,'99',1,     0.000,    -4.149
    53,'99',1,     0.000,   -61.980
    67,'99',1,     0.000,     3.708
    86,'99',1,     0.000,     6.325
    90,'99',1,     0.000,    -0.019
   153,'99',1,     0.000,   -11.354
   156,'99',1,     0.000,    75.294
   157,'99',1,     0.000,   -27.072
   158,'99',1,     0.000,  -322.112
   161,'99',1,     0.000,  -124.239
   221,'99',1,     0.000,    13.922
   225,'99',1,     0.000,  -110.360
   226,'99',1,     0.000,   -18.625
   232,'99',1,     0.000,     4.355
   245,'99',1,     0.000,   -10.356
   253,'99',1,     0.000,     6.238
   255,'99',1,     0.000,     7.309
   271,'99',1,     0.000,     5.929
   275,'99',1,     0.000,    84.787
   277,'99',1,     0.000,   110.690
   281,'99',1,     0.000,     2.151
   285,'99',1,     0.000,  -161.346
   309,'99',1,     0.000,    22.813
   348,'99',1,     0.000,   -12.059
   374,'99',1,     0.000,  -345.603
   466,'99',1,     0.000,  -104.053
   471,'99',1,     0.000,  -290.111
   478,'99',1,     0.000,    64.761
   577,'99',1,     0.000,    -7.123
   579,'99',1,     0.000,    -9.607
   580,'99',1,     0.000,  -102.360
   581,'99',1,     0.000,    47.641
   583,'99',1,     0.000,    -2.918
   585,'99',1,     0.000,    13.934
   589,'99',1,     0.000,     3.923
   623,'99',1,     0.000,     8.010
   624,'99',1,     0.000,    -7.008
   636,'99',1,     0.000,     0.009
   672,'99',1,     0.000,    12.795
   690,'99',1,     0.000,     6.841
   695,'99',1,     0.000,    16.470
   698,'99',1,     0.000,   160.079
   703,'99',1,     0.000,   -47.656
   718,'99',1,     0.000,   -21.734
   720,'99',1,     0.000,    20.121
   723,'99',1,     0.000,     8.700
   750,'99',1,     0.000,    13.261
   760,'99',1,     0.000,    64.443
   766,'99',1,     0.000,   115.888
   817,'99',1,     0.000,    11.465
   869,'99',1,     0.000,     5.172
   883,'99',1,     0.000,    11.098
   939,'99',1,     0.000,    11.802
   942,'99',1,     0.000,     7.486
   979,'99',1,     0.000,    14.306
   983,'99',1,     0.000,    -5.456
   995,'99',1,     0.000,    14.167
  1012,'99',1,     0.000,     2.712
  1013,'99',1,     0.000,   -10.135
  1054,'99',1,     0.000,     2.499
  1096,'99',1,     0.000,   -29.377
  1135,'99',1,     0.000,    16.277
  1226,'99',1,     0.000,   307.861
  1241,'99',1,     0.000,    -9.766
  1245,'99',1,     0.000,    28.800
  1266,'99',1,     0.000,     1.091
  1267,'99',1,     0.000,   -13.276
  1351,'99',1,     0.000,     9.622
  1359,'99',1,     0.000,    44.093
  1376,'99',1,     0.000,    62.250
  1377,'99',1,     0.000,    37.157
  1384,'99',1,     0.000,    -0.278
  1400,'99',1,     0.000,    13.892
  1495,'99',1,     0.000,    -1.174
  1496,'99',1,     0.000,    12.766
  1525,'99',1,     0.000,   -18.886
  1533,'99',1,     0.000,   -95.945
  1557,'99',1,     0.000,   -31.028
  1565,'99',1,     0.000,   -52.104
  1621,'99',1,     0.000,   -73.418
  1807,'99',1,     0.000,   -15.963
  1877,'99',1,     0.000,    -5.368
  1878,'99',1,     0.000,    12.724
  1880,'99',1,     0.000,    -5.367
  1923,'99',1,     0.000,    -9.083
  1951,'99',1,     0.000,     0.756
  1979,'99',1,     0.000,     0.624
  1998,'99',1,     0.000,     4.345
  1999,'99',1,     0.000,    17.297
  2083,'99',1,     0.000,    28.513
  2093,'99',1,     0.000,   103.474
  2095,'99',1,     0.000,   -13.183
  2109,'99',1,     0.000,   -38.789
  2111,'99',1,     0.000,    -2.161
  2129,'99',1,     0.000,    -0.089
  2146,'99',1,     0.000,   -19.827
  2172,'99',1,     0.000,     2.864
  2174,'99',1,     0.000,     9.100
  2179,'99',1,     0.000,    94.807
  2192,'99',1,     0.000,    -0.371
  2197,'99',1,     0.000,     5.815
  2224,'99',1,     0.000,     1.293
  2230,'99',1,     0.000,   -11.696
  2244,'99',1,     0.000,     3.661
  2246,'99',1,     0.000,   -32.703
  2251,'99',1,     0.000,    17.159
  2258,'99',1,     0.000,     9.498
  2262,'99',1,     0.000,    -0.418
  2269,'99',1,     0.000,  -361.197
  2287,'99',1,     0.000,   191.001
  2293,'99',1,     0.000,  -120.311
  2296,'99',1,     0.000,     2.477
  2297,'99',1,     0.000,  -130.348
  2309,'99',1,     0.000,    30.957
  2311,'99',1,     0.000,   -63.287
0 / END OF FIXED SHUNT DATA, BEGIN GENERATOR DATA
     9,'1 ',     0.000,     0.000,   230.625,  -230.625,1.00788,     0,   100.000, 0.00000E+0, 1.80000E-1, 0.00000E+0, 0.00000E+0,1.00000,0,  100.0,   320.312,   135.000,   1,1.0000,0,1,0,1,0,1,0,1
    10,'1 ',   426.557,     1.109,   383.901,  -383.901,1.00358,     0,   100.000, 0.00000E+0, 1.80000E-1, 0.00000E+0, 0.00000E+0,1.00000,1,  100.0,   533.196,   171.516,   1,1.0000,0,1,0,1,0,1,0,1
    10,'2 ',     0.000,     0.000,   399.796,  -399.796,1.00358,     0,   100.000, 0.00000E+0, 1.80000E-1, 0.00000E+0, 0.00000E+0,1.00000,0,  100.0,   555.273,   178.876,   1,1.0000,0,1,0,1,0,1,0,1
    11,'1 ',     0.000,     0.000,    16.000,   -16.000,1.00788,     0,   100.000, 0.00000E+0, 2.00000E-1, 0.00000E+0, 0.00000E+0,1.00000,0,  100.0,    55.000,    40.000,   1,1.0000,0,1,0,1,0,1,0,1
    11,'2 ',     0.000,     0.000,    49.500,   -49.500,1.00788,     0,   100.000, 0.00000E+0, 2.00000E-1, 0.00000E+0, 0.00000E+0,1.00000,0,  100.0,    68.750,    35.833,   1,1.0000,0,1,0,1,0,1,0,1
    12,'1 ',     0.000,     0.000,    49.500,   -49.500,1.00788,     0,   100.000, 0.00000E+0, 2.00000E-1, 0.00000E+0, 0.00000E+0,1.00000,0,  100.0,    68.750,    35.833,   1,1.0000,0,1,0,1,0,1,0,1
    20,'1 ',     0.000,     0.000,    16.667,   -16.667,1.02455,     0,   100.000, 0.00000E+0, 2.00000E-1, 0.00000E+0, 0.00000E+0,1.00000,0,  100.0,    50.000,    38.000,   1,1.0000,0,1,0,1,0,1,0,1
    24,'99',     0.078,    10.548,   650.000,  -650.000,1.00540,     0,   100.000, 0.00000E+0, 1.00000E+0, 0.00000E+0, 0.00000E+0,1.00000,1,  100.0,    93.131,     0.000,   1,1.0000,0,1,0,1,0,1,0,1
    25,'1 ',     0.000,     0.000,     8.000,    -8.000,1.02455,     0,   100.000, 0.00000E+0, 2.00000E-1, 0.00000E+0, 0.00000E+0,1.00000,0,  100.0,    24.000,     5.000,   1,1.0000,0,1,0,1,0,1,0,1
    25,'2 ',     0.000,     0.000,     5.667,    -5.667,1.02455,     0,   100.000, 0.00000E+0, 2.00000E-1, 0.00000E+0, 0.00000E+0,1.00000,0,  100.0,    17.000,     4.000,   1,1.0000,0,1,0,1,0,1,0,1
    26,'1 ',     0.000,     0.000,    13.500,   -13.500,1.00788,     0,   100.000, 0.00000E+0, 2.00000E-1, 0.00000E+0, 0.00000E+0,1.00000,0,  100.0,    18.750,     3.000,   1,1.0000,0,1,0,1,0,1,0,1
    26,'2 ',     0.000,     0.000,     5.000,    -5.000,1.00788,     0,   100.000, 0.00000E+0, 2.00000E-1, 0.00000E+0, 0.00000E+0,1.00000,0,  100.0,    15.000,     3.000,   1,1.0000,0,1,0,1,0,1,0,1
    26,'3 ',     0.000,     0.000,     5.000,    -5.000,1.00788,     0,   100.000, 0.00000E+0, 2.00000E-1, 0.00000E+0, 0.00000E+0,1.00000,0,  100.0,    15.000,     3.000,   1,1.0000,0,1,0,1,0,1,0,1
    32,'99',     6.013,    -1.370,    33.333,   -33.333,1.02382,     0,   100.000, 0.00000E+0, 1.00000E+0, 0.00000E+0, 0.00000E+0,1.00000,0,  100.0,   265.000,     6.013,   1,1.0000,0,1,0,1,0,1,0,1
    46,'1 ',     0.000,     0.000,     4.000,    -4.000,0.99751,     0,   100.000, 0.00000E+0, 2.00000E-1, 0.00000E+0, 0.00000E+0,1.00000,0,  100.0,    12.000,     0.000,   1,1.0000,0,1,0,1,0,1,0,1
    46,'2 ',    12.000,    10.800,    10.800,   -10.800,0.99751,     0,   100.000, 0.00000E+0, 2.00000E-1, 0.00000E+0, 0.00000E+0,1.00000,1,  100.0,    15.000,     0.000,   1,1.0000,0,1,0,1,0,1,0,1
    53,'99',    12.674,   -62.519,    33.333,   -33.333,1.00434,     0,   100.000, 0.00000E+0, 1.00000E+0, 0.00000E+0, 0.00000E+0,1.00000,0,  100.0,    27.674,    12.674,   1,1.0000,0,1,0,1,0,1,0,1
    67,'99',     3.326,     3.705,    33.333,   -33.333,1.00356,     0,   100.000, 0.00000E+0, 1.00000E+0, 0.00000E+0, 0.00000E+0,1.00000,0,  100.0,   268.000,     3.326,   1,1.0000,0,1,0,1,0,1,0,1
    68,'1 ',   256.250,     2.576,   230.625,  -230.625,1.00858,     0,   100.000, 0.00000E+0, 1.80000E-1, 0.00000E+0, 0.00000E+0,1.00000,1,  100.0,   320.312,   135.000,   1,1.0000,0,1,0,1,0,1,0,1
    75,'1 ',     0.000,     0.000,   184.500,  -184.500,1.00788,     0,   100.000, 0.00000E+0, 1.80000E-1, 0.00000E+0, 0.00000E+0,1.00000,0,  100.0,   256.250,   135.000,   1,1.0000,0,1,0,1,0,1,0,1
    76,'1 ',     0.000,     0.000,    74.000,   -74.000,1.00788,     0,   100.000, 0.00000E+0, 1.80000E-1, 0.00000E+0, 0.00000E+0,1.00000,0,  100.0,   222.000,    90.000,   1,1.0000,0,1,0,1,0,1,0,1
    76,'2 ',     0.000,     0.000,    68.333,   -68.333,1.00788,     0,   100.000, 0.00000E+0, 1.80000E-1, 0.00000E+0, 0.00000E+0,1.00000,0,  100.0,   205.000,   135.000,   1,1.0000,0,1,0,1,0,1,0,1
    76,'3 ',   232.000,   116.191,   208.800,  -208.800,1.00788,     0,   100.000, 0.00000E+0, 1.80000E-1, 0.00000E+0, 0.00000E+0,1.00000,1,  100.0,   290.000,   100.000,   1,1.0000,0,1,0,1,0,1,0,1
    77,'1 ',     0.000,     0.000,   225.000,  -225.000,1.00260,     0,   100.000, 0.00000E+0, 1.80000E-1, 0.00000E+0, 0.00000E+0,1.00000,0,  100.0,   312.500,    90.000,   1,1.0000,0,1,0,1,0,1,0,1
    77,'99',    89.968,     9.751,   650.000,  -650.000,1.00260,     0,   100.000, 0.00000E+0, 1.00000E+0, 0.00000E+0, 0.00000E+0,1.00000,1,  100.0,   309.292,     0.000,   1,1.0000,0,1,0,1,0,1,0,1
    78,'99',    50.019,   -90.749,   650.000,  -650.000,0.99160,     0,   100.000, 0.00000E+0, 1.00000E+0, 0.00000E+0, 0.00000E+0,1.00000,1,  100.0,   217.319,     0.000,   1,1.0000,0,1,0,1,0,1,0,1
    90,'99',    19.203,    -0.019,    33.333,   -33.333,0.99752,     0,   100.000, 0.00000E+0, 1.00000E+0, 0.00000E+0, 0.00000E+0,1.00000,0,  100.0,    34.203,    19.203,   1,1.0000,0,1,0,1,0,1,0,1
    92,'1 ',   142.800,     8.164,   199.800,  -199.800,1.00542,     0,   100.000, 0.00000E+0, 1.80000E-1, 0.00000E+0, 0.00000E+0,1.00000,1,  100.0,   277.500,    90.000,   1,1.0000,0,1,0,1,0,1,0,1
    95,'1 ',     0.000,     0.000,   258.300,  -258.300,1.00225,     0,   100.000, 0.00000E+0, 2.00000E-1, 0.00000E+0, 0.00000E+0,1.00000,0,  100.0,   358.750,     0.000,   1,1.0000,0,1,0,1,0,1,0,1
    96,'1 ',     0.000,     0.000,     0.333,    -0.333,1.02455,     0,   100.000, 0.00000E+0, 2.00000E-1, 0.00000E+0, 0.00000E+0,1.00000,0,  100.0,   274.000,     0.000,   1,1.0000,0,1,0,1,0,1,0,1
    98,'1 ',     0.000,     0.000,    59.287,   -59.287,1.00358,     0,   100.000, 0.00000E+0, 2.00000E-1, 0.00000E+0, 0.00000E+0,1.00000,0,  100.0,    82.344,    10.000,   1,1.0000,0,1,0,1,0,1,0,1
    98,'2 ',   267.000,   -46.286,   240.300,  -240.300,1.00358,     0,   100.000, 0.00000E+0, 2.00000E-1, 0.00000E+0, 0.00000E+0,1.00000,1,  100.0,   333.750,     2.000,   1,1.0000,0,1,0,1,0,1,0,1
    99,'1 ',   262.000,   -21.587,   235.800,  -235.800,1.00788,     0,   100.000, 0.00000E+0, 2.00000E-1, 0.00000E+0, 0.00000E+0,1.00000,1,  100.0,   327.500,     1.000,   1,1.0000,0,1,0,1,0,1,0,1
    99,'2 ',     0.000,     0.000,     9.667,    -9.667,1.00788,     0,   100.000, 0.00000E+0, 2.00000E-1, 0.00000E+0, 0.00000E+0,1.00000,0,  100.0,    36.000,    21.000,   1,1.0000,0,1,0,1,0,1,0,1
   112,'1 ',     0.000,     0.000,   250.200,  -250.200,1.00358,     0,   100.000, 0.00000E+0, 2.00000E-1, 0.00000E+0, 0.00000E+0,1.00000,0,  100.0,   347.500,     0.000,   1,1.0000,0,1,0,1,0,1,0,1
   112,'2 ',     0.000,     0.000,   259.200,  -259.200,1.00358,     0,   100.000, 0.00000E+0, 2.00000E-1, 0.00000E+0, 0.00000E+0,1.00000,0,  100.0,   360.000,     1.000,   1,1.0000,0,1,0,1,0,1,0,1
   120,'1 ',    20.000,    18.000,    18.000,   -18.000,0.98648,     0,   100.000, 0.00000E+0, 2.00000E-1, 0.00000E+0, 0.00000E+0,1.00000,1,  100.0,    25.000,     5.000,   1,1.0000,0,1,0,1,0,1,0,1
   124,'1 ',     0.000,     0.000,    22.333,   -22.333,1.02455,     0,   100.000, 0.00000E+0, 2.00000E-1, 0.00000E+0, 0.00000E+0,1.00000,0,  100.0,    67.000,    40.000,   1,1.0000,0,1,0,1,0,1,0,1
   125,'1 ',     0.000,     0.000,    58.500,   -58.500,1.00929,     0,   100.000, 0.00000E+0, 2.00000E-1, 0.00000E+0, 0.00000E+0,1.00000,0,  100.0,    81.250,    40.000,   1,1.0000,0,1,0,1,0,1,0,1
   127,'1 ',     0.000,     0.000,    27.900,   -27.900,1.00507,     0,   100.000, 0.00000E+0, 2.00000E-1, 0.00000E+0, 0.00000E+0,1.00000,0,  100.0,    38.750,     0.000,   1,1.0000,0,1,0,1,0,1,0,1
   128,'1 ',     0.000,     0.000,    27.900,   -27.900,1.00507,     0,   100.000, 0.00000E+0, 2.00000E-1, 0.00000E+0, 0.00000E+0,1.00000,0,  100.0,    38.750,     0.000,   1,1.0000,0,1,0,1,0,1,0,1
   135,'1 ',   286.000,   -49.429,   257.400,  -257.400,1.00718,     0,   100.000, 0.00000E+0, 2.00000E-1, 0.00000E+0, 0.00000E+0,1.00000,1,  100.0,   357.500,     1.000,   1,1.0000,0,1,0,1,0,1,0,1
   136,'1 ',     0.000,     0.000,     1.333,    -1.333,1.02455,     0,   100.000, 0.00000E+0, 2.00000E-1, 0.00000E+0, 0.00000E+0,1.00000,0,  100.0,   256.000,     1.000,   1,1.0000,0,1,0,1,0,1,0,1
   136,'2 ',     0.000,     0.000,     6.000,    -6.000,1.02455,     0,   100.000, 0.00000E+0, 2.00000E-1, 0.00000E+0, 0.00000E+0,1.00000,0,  100.0,    18.000,     3.000,   1,1.0000,0,1,0,1,0,1,0,1
   136,'3 ',     0.000,     0.000,    18.667,   -18.667,1.02455,     0,   100.000, 0.00000E+0, 2.00000E-1, 0.00000E+0, 0.00000E+0,1.00000,0,  100.0,    56.000,    10.000,   1,1.0000,0,1,0,1,0,1,0,1
   138,'1 ',     0.000,     0.000,   234.000,  -234.000,1.00788,     0,   100.000, 0.00000E+0, 2.00000E-1, 0.00000E+0, 0.00000E+0,1.00000,0,  100.0,   325.000,     0.000,   1,1.0000,0,1,0,1,0,1,0,1
   150,'1 ',   268.000,    12.710,   241.200,  -241.200,1.00794,     0,   100.000, 0.00000E+0, 1.80000E-1, 0.00000E+0, 0.00000E+0,1.00000,1,  100.0,   335.000,     0.000,   1,1.0000,0,1,0,1,0,1,0,1
   153,'99',   122.965,   -11.335,    33.333,   -33.333,0.99917,     0,   100.000, 0.00000E+0, 1.00000E+0, 0.00000E+0, 0.00000E+0,1.00000,0,  100.0,   137.965,   122.965,   1,1.0000,0,1,0,1,0,1,0,1
   157,'99',    38.537,   -25.154,    33.333,   -33.333,0.96379,     0,   100.000, 0.00000E+0, 1.00000E+0, 0.00000E+0, 0.00000E+0,1.00000,0,  100.0,    53.537,    38.537,   1,1.0000,0,1,0,1,0,1,0,1
   158,'99',   269.075,  -293.602,    33.333,   -33.333,0.95472,     0,   100.000, 0.00000E+0, 1.00000E+0, 0.00000E+0, 0.00000E+0,1.00000,0,  100.0,   284.075,   269.075,   1,1.0000,0,1,0,1,0,1,0,1
   161,'99',    27.024,  -118.604,    33.333,   -33.333,0.97706,     0,   100.000, 0.00000E+0, 1.00000E+0, 0.00000E+0, 0.00000E+0,1.00000,0,  100.0,    42.024,    27.024,   1,1.0000,0,1,0,1,0,1,0,1
   165,'1 ',     0.000,     0.000,   161.100,  -161.100,1.00224,     0,   100.000, 0.00000E+0, 1.80000E-1, 0.00000E+0, 0.00000E+0,1.00000,0,  100.0,   223.750,  -200.000,   1,1.0000,0,1,0,1,0,1,0,1
   165,'2 ',     0.000,     0.000,   161.100,  -161.100,1.00224,     0,   100.000, 0.00000E+0, 1.80000E-1, 0.00000E+0, 0.00000E+0,1.00000,0,  100.0,   223.750,  -200.000,   1,1.0000,0,1,0,1,0,1,0,1
   165,'3 ',     0.000,     0.000,   161.100,  -161.100,1.00224,     0,   100.000, 0.00000E+0, 1.80000E-1, 0.00000E+0, 0.00000E+0,1.00000,0,  100.0,   223.750,  -200.000,   1,1.0000,0,1,0,1,0,1,0,1
   166,'1 ',   104.000,    78.204,   161.100,  -161.100,1.00445,     0,   100.000, 0.00000E+0, 1.80000E-1, 0.00000E+0, 0.00000E+0,1.00000,1,  100.0,   223.750,  -200.000,   1,1.0000,0,1,0,1,0,1,0,1
   168,'1 ',    38.595,    49.500,    49.500,   -49.500,1.00586,     0,   100.000, 0.00000E+0, 2.00000E-1, 0.00000E+0, 0.00000E+0,1.00000,1,  100.0,    68.750,    26.000,   1,1.0000,0,1,0,1,0,1,0,1
   169,'1 ',     0.000,     0.000,    18.333,   -18.333,1.01909,     0,   100.000, 0.00000E+0, 2.00000E-1, 0.00000E+0, 0.00000E+0,1.00000,0,  100.0,    55.000,    26.000,   1,1.0000,0,1,0,1,0,1,0,1
   171,'1 ',     0.000,     0.000,   255.600,  -255.600,1.00718,     0,   100.000, 0.00000E+0, 2.00000E-1, 0.00000E+0, 0.00000E+0,1.00000,0,  100.0,   355.000,     0.000,   1,1.0000,0,1,0,1,0,1,0,1
   177,'1 ',     0.000,     0.000,    16.200,   -16.200,1.00718,     0,   100.000, 0.00000E+0, 2.00000E-1, 0.00000E+0, 0.00000E+0,1.00000,0,  100.0,    22.500,     0.000,   1,1.0000,0,1,0,1,0,1,0,1
   178,'1 ',    22.000,     6.419,    19.800,   -19.800,1.00788,     0,   100.000, 0.00000E+0, 2.00000E-1, 0.00000E+0, 0.00000E+0,1.00000,1,  100.0,    27.500,     0.000,   1,1.0000,0,1,0,1,0,1,0,1
   183,'1 ',   180.964,   -41.004,   235.800,  -235.800,1.00718,     0,   100.000, 0.00000E+0, 2.00000E-1, 0.00000E+0, 0.00000E+0,1.00000,1,  100.0,   327.500,     0.000,   1,1.0000,0,1,0,1,0,1,0,1
   185,'99',    34.289,     0.755,   650.000,  -650.000,1.00980,     0,   100.000, 0.00000E+0, 1.00000E+0, 0.00000E+0, 0.00000E+0,1.00000,1,  100.0,   341.250,     0.000,   1,1.0000,0,1,0,1,0,1,0,1
   188,'1 ',   127.889,    24.898,   269.100,  -269.100,1.00788,     0,   100.000, 0.00000E+0, 2.00000E-1, 0.00000E+0, 0.00000E+0,1.00000,1,  100.0,   373.750,     1.000,   1,1.0000,0,1,0,1,0,1,0,1
   194,'1 ',     0.000,     0.000,   255.600,  -255.600,1.00718,     0,   100.000, 0.00000E+0, 2.00000E-1, 0.00000E+0, 0.00000E+0,1.00000,0,  100.0,   355.000,     0.000,   1,1.0000,0,1,0,1,0,1,0,1
   195,'1 ',   163.467,     1.438,   230.400,  -230.400,1.00788,     0,   100.000, 0.00000E+0, 2.00000E-1, 0.00000E+0, 0.00000E+0,1.00000,1,  100.0,   320.000,     0.000,   1,1.0000,0,1,0,1,0,1,0,1
   201,'1 ',    91.847,   -10.560,   261.900,  -261.900,1.00788,     0,   100.000, 0.00000E+0, 2.00000E-1, 0.00000E+0, 0.00000E+0,1.00000,1,  100.0,   363.750,     0.000,   1,1.0000,0,1,0,1,0,1,0,1
   207,'1 ',     0.000,     0.000,   264.600,  -264.600,1.00718,     0,   100.000, 0.00000E+0, 2.00000E-1, 0.00000E+0, 0.00000E+0,1.00000,0,  100.0,   367.500,     0.000,   1,1.0000,0,1,0,1,0,1,0,1
   209,'1 ',     0.000,     0.000,   234.900,  -234.900,1.00718,     0,   100.000, 0.00000E+0, 2.00000E-1, 0.00000E+0, 0.00000E+0,1.00000,0,  100.0,   326.250,     0.000,   1,1.0000,0,1,0,1,0,1,0,1
   217,'99',    47.940,    50.487,   650.000,  -650.000,0.99870,     0,   100.000, 0.00000E+0, 1.00000E+0, 0.00000E+0, 0.00000E+0,1.00000,1,  100.0,   213.769,     0.000,   1,1.0000,0,1,0,1,0,1,0,1
   223,'1 ',     0.000,     0.000,   241.893,  -241.893,1.00788,     0,   100.000, 0.00000E+0, 1.80000E-1, 0.00000E+0, 0.00000E+0,1.00000,0,  100.0,   335.963,   120.000,   1,1.0000,0,1,0,1,0,1,0,1
   224,'1 ',   268.750,   101.670,   241.875,  -241.875,1.00788,     0,   100.000, 0.00000E+0, 1.80000E-1, 0.00000E+0, 0.00000E+0,1.00000,1,  100.0,   335.938,   120.000,   1,1.0000,0,1,0,1,0,1,0,1
   225,'1 ',   256.250,   139.826,   230.625,  -230.625,1.00788,     0,   100.000, 0.00000E+0, 1.80000E-1, 0.00000E+0, 0.00000E+0,1.00000,1,  100.0,   320.312,   135.000,   1,1.0000,0,1,0,1,0,1,0,1
   227,'1 ',     0.000,     0.000,    45.000,   -45.000,1.01227,     0,   100.000, 0.00000E+0, 1.80000E-1, 0.00000E+0, 0.00000E+0,1.00000,0,  100.0,   135.000,  -135.000,   1,1.0000,0,1,0,1,0,1,0,1
   227,'2 ',     0.000,     0.000,    45.000,   -45.000,1.01227,     0,   100.000, 0.00000E+0, 1.80000E-1, 0.00000E+0, 0.00000E+0,1.00000,0,  100.0,   135.000,  -135.000,   1,1.0000,0,1,0,1,0,1,0,1
   228,'1 ',     0.000,     0.000,    45.000,   -45.000,1.01227,     0,   100.000, 0.00000E+0, 1.80000E-1, 0.00000E+0, 0.00000E+0,1.00000,0,  100.0,   135.000,  -135.000,   1,1.0000,0,1,0,1,0,1,0,1
   228,'2 ',     0.000,     0.000,    45.000,   -45.000,1.01227,     0,   100.000, 0.00000E+0, 1.80000E-1, 0.00000E+0, 0.00000E+0,1.00000,0,  100.0,   135.000,  -135.000,   1,1.0000,0,1,0,1,0,1,0,1
   235,'1 ',     0.000,     0.000,    16.667,   -16.667,1.02455,     0,   100.000, 0.00000E+0, 2.00000E-1, 0.00000E+0, 0.00000E+0,1.00000,0,  100.0,    50.000,    38.000,   1,1.0000,0,1,0,1,0,1,0,1
   235,'2 ',     0.000,     0.000,    16.667,   -16.667,1.02455,     0,   100.000, 0.00000E+0, 2.00000E-1, 0.00000E+0, 0.00000E+0,1.00000,0,  100.0,    50.000,    38.000,   1,1.0000,0,1,0,1,0,1,0,1
   235,'3 ',     0.000,     0.000,    16.667,   -16.667,1.02455,     0,   100.000, 0.00000E+0, 2.00000E-1, 0.00000E+0, 0.00000E+0,1.00000,0,  100.0,    50.000,    38.000,   1,1.0000,0,1,0,1,0,1,0,1
...